Version 4
SHEET 1 980 752
WIRE 368 -128 368 -160
WIRE 272 48 -128 48
WIRE 496 48 272 48
WIRE 720 48 496 48
WIRE -128 80 -128 48
WIRE 272 96 272 48
WIRE 496 96 496 48
WIRE 720 96 720 48
WIRE 48 144 16 144
WIRE 336 144 320 144
WIRE 560 144 544 144
WIRE 784 144 768 144
WIRE 224 160 208 160
WIRE 448 160 432 160
WIRE 672 160 656 160
WIRE 64 224 32 224
FLAG 368 -160 VDD
FLAG 208 160 A3
FLAG 432 160 A2
FLAG 656 160 A1
FLAG 32 224 A0
FLAG 48 144 Q3
FLAG 336 144 Q2
FLAG 560 144 Q1
FLAG 784 144 Q0
FLAG 368 -48 0
FLAG 16 144 0
FLAG 64 224 0
SYMBOL SynchDflip_flop 272 160 R0
SYMATTR InstName X2
SYMBOL SynchDflip_flop 496 160 R0
SYMATTR InstName X3
SYMBOL SynchDflip_flop 720 160 R0
SYMATTR InstName X4
SYMBOL voltage 368 -144 R0
WINDOW 123 0 0 Left 2
WINDOW 39 0 0 Left 2
SYMATTR InstName V2
SYMATTR Value 1
SYMBOL voltage -128 64 R0
WINDOW 3 -346 96 Left 2
WINDOW 123 0 0 Left 2
WINDOW 39 0 0 Left 2
SYMATTR InstName V1
SYMATTR Value PULSE(0 1 1n 10p 10p 2n 4n)
