Version 4
SHEET 1 880 744
WIRE -1552 -112 -1616 -112
WIRE -1104 -112 -1104 -192
WIRE -1104 -112 -1552 -112
WIRE -752 -112 -1104 -112
WIRE -1728 -96 -2240 -96
WIRE -1552 -80 -1552 -112
WIRE -1552 -80 -1616 -80
WIRE -2240 48 -2240 -96
WIRE -1856 48 -2240 48
WIRE -752 48 -752 -112
WIRE -368 48 -752 48
WIRE -1664 64 -1744 64
WIRE -1632 64 -1664 64
WIRE -176 64 -256 64
WIRE -144 64 -176 64
WIRE -1856 80 -2096 80
WIRE -1456 80 -1520 80
WIRE -1424 80 -1456 80
WIRE -368 80 -608 80
WIRE 32 80 -32 80
WIRE 64 80 32 80
WIRE -1664 96 -1664 64
WIRE -1632 96 -1664 96
WIRE -1168 96 -1312 96
WIRE -176 96 -176 64
WIRE -144 96 -176 96
WIRE 320 96 176 96
WIRE -1456 112 -1456 80
WIRE -1424 112 -1456 112
WIRE -1024 112 -1056 112
WIRE -816 112 -1024 112
WIRE 32 112 32 80
WIRE 64 112 32 112
WIRE 464 112 432 112
WIRE 576 112 464 112
WIRE -1168 128 -1216 128
WIRE 320 128 272 128
WIRE -1024 208 -1024 112
WIRE -1024 208 -1248 208
WIRE 464 208 464 112
WIRE 464 208 240 208
WIRE -1216 240 -1216 128
WIRE -1024 240 -1216 240
WIRE 272 240 272 128
WIRE 464 240 272 240
WIRE -2240 272 -2240 48
WIRE -1872 272 -2240 272
WIRE -1856 272 -1872 272
WIRE -752 272 -752 48
WIRE -368 272 -752 272
WIRE -1664 288 -1760 288
WIRE -1632 288 -1664 288
WIRE -1248 288 -1248 208
WIRE -1168 288 -1248 288
WIRE -176 288 -256 288
WIRE -144 288 -176 288
WIRE 240 288 240 208
WIRE 320 288 240 288
WIRE -2096 304 -2096 80
WIRE -2096 304 -2240 304
WIRE -2064 304 -2096 304
WIRE -2032 304 -2064 304
WIRE -1872 304 -1904 304
WIRE -1856 304 -1872 304
WIRE -1456 304 -1520 304
WIRE -1424 304 -1456 304
WIRE -1024 304 -1024 240
WIRE -1024 304 -1056 304
WIRE -816 304 -816 112
WIRE -608 304 -608 80
WIRE -608 304 -816 304
WIRE -576 304 -608 304
WIRE -544 304 -576 304
WIRE -368 304 -416 304
WIRE 32 304 -32 304
WIRE 64 304 32 304
WIRE 464 304 464 240
WIRE 464 304 432 304
WIRE 576 304 464 304
WIRE -1904 320 -1904 304
WIRE -1904 320 -1920 320
WIRE -1664 320 -1664 288
WIRE -1632 320 -1664 320
WIRE -1168 320 -1312 320
WIRE -416 320 -416 304
WIRE -416 320 -432 320
WIRE -176 320 -176 288
WIRE -144 320 -176 320
WIRE 320 320 176 320
WIRE -2064 336 -2064 304
WIRE -2032 336 -2064 336
WIRE -1456 336 -1456 304
WIRE -1424 336 -1456 336
WIRE -576 336 -576 304
WIRE -544 336 -576 336
WIRE 32 336 32 304
WIRE 64 336 32 336
FLAG 576 112 Q
FLAG 576 304 /Q
FLAG -1104 -192 CLK
FLAG -2240 304 D
SYMBOL 74HCT\\74hct00 112 256 R0
SYMATTR InstName U1
SYMBOL 74HCT\\74hct00 368 240 R0
SYMATTR InstName U2
SYMBOL 74HCT\\74hct00 368 48 R0
SYMATTR InstName U3
SYMBOL 74HCT\\74hct00 112 32 R0
SYMATTR InstName U4
SYMBOL 74HCT\\74hct00 -96 16 R0
SYMATTR InstName U5
SYMBOL 74HCT\\74hct00 -96 240 R0
SYMATTR InstName U6
SYMBOL 74HCT\\74hct00 -320 224 R0
SYMATTR InstName U7
SYMBOL 74HCT\\74hct00 -496 256 R0
SYMATTR InstName U8
SYMBOL 74HCT\\74hct00 -320 0 R0
SYMATTR InstName U9
SYMBOL 74HCT\\74hct00 -1120 240 R0
SYMATTR InstName U10
SYMBOL 74HCT\\74hct00 -1120 48 R0
SYMATTR InstName U11
SYMBOL 74HCT\\74hct00 -1664 -32 R180
SYMATTR InstName U12
SYMBOL 74HCT\\74hct00 -1376 256 R0
SYMATTR InstName U13
SYMBOL 74HCT\\74hct00 -1376 32 R0
SYMATTR InstName U14
SYMBOL 74HCT\\74hct00 -1584 16 R0
SYMATTR InstName U15
SYMBOL 74HCT\\74hct00 -1584 240 R0
SYMATTR InstName U16
SYMBOL 74HCT\\74hct00 -1984 256 R0
SYMATTR InstName U17
SYMBOL 74HCT\\74hct00 -1824 224 R0
SYMATTR InstName U18
SYMBOL 74HCT\\74hct00 -1808 0 R0
SYMATTR InstName U19
