Version 4
SHEET 1 880 680
WIRE 320 160 272 160
WIRE 528 160 432 160
WIRE -32 176 -208 176
WIRE 176 176 80 176
WIRE -208 240 -208 176
WIRE -208 352 -208 320
WIRE -16 384 -16 352
FLAG 528 160 0
FLAG -208 352 0
FLAG -16 352 VDD
FLAG -16 464 0
SYMBOL SynchDflip_flop 224 176 R0
SYMATTR InstName X1
SYMBOL 74HCT\\74hct04 16 112 R0
SYMATTR InstName U1
SYMBOL 74HCT\\74hct04 368 96 R0
SYMATTR InstName U2
SYMBOL voltage -208 224 R0
WINDOW 123 0 0 Left 2
WINDOW 39 0 0 Left 2
SYMATTR InstName V1
SYMATTR Value 5
SYMBOL voltage -16 368 R0
SYMATTR InstName VDD1
SYMATTR Value 1
