Version 4
SHEET 1 880 680
WIRE -32 -16 -160 -16
WIRE 64 -16 -32 -16
WIRE -160 16 -160 -16
WIRE 160 96 96 96
WIRE -32 272 -32 -16
WIRE 64 272 -32 272
WIRE 160 384 144 384
FLAG 64 -64 S0
FLAG 64 224 S1
FLAG 256 240 S"1
FLAG 256 -48 S"0
FLAG -160 96 0
FLAG 96 96 RESET
FLAG 64 32 S0
FLAG 64 320 S1
FLAG 144 384 RESET
SYMBOL voltage -160 0 R0
WINDOW 3 -221 127 Left 2
WINDOW 123 0 0 Left 2
WINDOW 39 0 0 Left 2
SYMATTR Value PULSE(0 1 1n 10p 10p 2n 4n)
SYMATTR InstName CLK1
SYMBOL 74HCT\\74hct109 160 -128 R0
SYMATTR InstName U1
SYMBOL 74HCT\\74hct109 160 160 R0
SYMATTR InstName U2
TEXT -360 -176 Left 2 !.include 90nm_bulk.txt
