Version 4
SHEET 1 880 680
WIRE 128 -288 64 -288
WIRE 32 -208 0 -208
WIRE 256 -208 224 -208
WIRE -64 -176 -192 -176
WIRE 32 -176 -64 -176
WIRE -192 -144 -192 -176
WIRE 32 64 0 64
WIRE 256 64 224 64
WIRE -64 96 -64 -176
WIRE 32 96 -64 96
WIRE 128 208 64 208
WIRE 128 256 48 256
WIRE 32 336 0 336
WIRE 256 336 224 336
WIRE -64 368 -64 96
WIRE 32 368 -64 368
FLAG 0 -208 S0
FLAG 0 64 S1
FLAG 0 336 S2
FLAG 256 336 S"2
FLAG 256 64 S"1
FLAG 256 -208 S"0
FLAG 64 -288 RESET
FLAG 64 208 RESET
FLAG 48 256 RESET
FLAG -192 -64 0
SYMBOL 74HCT\\74hct74 128 -288 R0
SYMATTR InstName U1
SYMBOL 74HCT\\74hct74 128 -16 R0
SYMATTR InstName U2
SYMBOL 74HCT\\74hct74 128 256 R0
SYMATTR InstName U3
SYMBOL voltage -192 -160 R0
WINDOW 3 -221 127 Left 2
WINDOW 123 0 0 Left 2
WINDOW 39 0 0 Left 2
SYMATTR Value PULSE(0 1 1n 10p 10p 2n 4n)
SYMATTR InstName CLK
TEXT -392 -336 Left 2 !.include 90nm_bulk.txt
