Version 4
SHEET 1 880 680
WIRE 128 -224 96 -224
WIRE 352 -224 320 -224
WIRE 32 -192 -96 -192
WIRE 128 -192 32 -192
WIRE -96 -160 -96 -192
WIRE 224 -80 160 -80
WIRE 128 48 96 48
WIRE 352 48 320 48
WIRE 32 80 32 -192
WIRE 128 80 32 80
WIRE 224 192 160 192
WIRE 128 320 96 320
WIRE 352 320 320 320
WIRE 32 352 32 80
WIRE 128 352 32 352
WIRE 224 464 144 464
FLAG 96 -224 S0
FLAG 96 48 S1
FLAG 96 320 S2
FLAG 352 320 S"2
FLAG 352 48 S"1
FLAG 352 -224 S"0
FLAG 160 -80 RESET
FLAG 160 192 RESET
FLAG 144 464 RESET
FLAG -96 -80 0
SYMBOL 74HCT\\74hct74 224 -304 R0
SYMATTR InstName U1
SYMBOL 74HCT\\74hct74 224 -32 R0
SYMATTR InstName U2
SYMBOL 74HCT\\74hct74 224 240 R0
SYMATTR InstName U3
SYMBOL voltage -96 -176 R0
WINDOW 3 -221 127 Left 2
WINDOW 123 0 0 Left 2
WINDOW 39 0 0 Left 2
SYMATTR Value PULSE(0 1 1n 10p 10p 2n 4n)
SYMATTR InstName CLK1
TEXT -296 -352 Left 2 !.include 90nm_bulk.txt
