Version 4
SHEET 1 1148 876
WIRE 192 -272 128 -272
WIRE 0 -160 -128 -160
WIRE 96 -160 0 -160
WIRE -128 -128 -128 -160
WIRE 0 128 0 -160
WIRE 96 128 0 128
WIRE 192 240 176 240
WIRE 0 416 0 128
WIRE 96 416 0 416
WIRE 192 528 176 528
WIRE 0 704 0 416
WIRE 96 704 0 704
WIRE 192 816 176 816
FLAG 96 -208 S0
FLAG 96 80 S1
FLAG 288 384 S"2
FLAG 288 96 S"1
FLAG 288 -192 S"0
FLAG -128 -48 0
FLAG 96 752 S3
FLAG 288 672 S"3
FLAG 128 -272 RESET
FLAG 96 -112 S0
FLAG 96 176 S1
FLAG 176 240 RESET
FLAG 176 528 RESET
FLAG 176 816 RESET
FLAG 96 368 S2
FLAG 96 464 S2
FLAG 96 656 S3
FLAG 192 -48 0
FLAG 288 -128 0
FLAG 288 160 0
FLAG 192 16 0
FLAG 192 304 0
FLAG 288 448 0
FLAG 288 736 0
FLAG 192 592 0
SYMBOL voltage -128 -144 R0
WINDOW 3 -221 127 Left 2
WINDOW 123 0 0 Left 2
WINDOW 39 0 0 Left 2
SYMATTR Value PULSE(0 5 0 10n 10n 1m 2m)
SYMATTR InstName CLK1
SYMBOL 74HCT\\74hct109 192 -272 R0
SYMATTR InstName U5
SYMBOL 74HCT\\74hct109 192 16 R0
SYMATTR InstName U3
SYMBOL 74HCT\\74hct109 192 304 R0
SYMATTR InstName U6
SYMBOL 74HCT\\74hct109 192 592 R0
SYMATTR InstName U8
TEXT -328 -320 Left 2 !.include 90nm_bulk.txt
TEXT -344 -256 Left 2 !.lib 74hct.lib
