Version 4
SHEET 1 1904 2068
WIRE 640 -1264 -48 -1264
WIRE 608 -1232 -16 -1232
WIRE 576 -1200 0 -1200
WIRE 0 -1120 0 -1200
WIRE 32 -1120 0 -1120
WIRE 304 -1088 224 -1088
WIRE -16 -1072 -16 -1232
WIRE 32 -1072 -16 -1072
WIRE 352 -1056 256 -1056
WIRE 576 -1056 576 -1200
WIRE 576 -1056 544 -1056
WIRE 1088 -1056 576 -1056
WIRE -48 -1024 -48 -1264
WIRE 32 -1024 -48 -1024
WIRE 352 -1008 224 -1008
WIRE 608 -1008 608 -1232
WIRE 608 -1008 544 -1008
WIRE 1040 -1008 608 -1008
WIRE -608 -992 -608 -1024
WIRE 32 -992 -608 -992
WIRE 304 -960 304 -1088
WIRE 352 -960 304 -960
WIRE 640 -960 640 -1264
WIRE 640 -960 544 -960
WIRE 992 -960 640 -960
WIRE -560 -944 -560 -1024
WIRE 32 -944 -560 -944
WIRE 256 -928 256 -1056
WIRE 256 -928 224 -928
WIRE -512 -896 -512 -1024
WIRE 32 -896 -512 -896
WIRE 448 -848 448 -880
WIRE -240 -816 -656 -816
WIRE -352 -784 -704 -784
WIRE -240 -752 -752 -752
WIRE 128 -752 128 -848
WIRE 336 -752 128 -752
WIRE -128 -720 -128 -784
WIRE -608 -672 -608 -992
WIRE -352 -672 -608 -672
WIRE -560 -640 -560 -944
WIRE -240 -640 -560 -640
WIRE -128 -640 -128 -688
WIRE -16 -640 -16 -704
WIRE -16 -640 -80 -640
WIRE -512 -608 -512 -896
WIRE -352 -608 -512 -608
WIRE -80 -592 -80 -640
WIRE 48 -576 32 -576
WIRE -656 -528 -656 -816
WIRE -352 -528 -656 -528
WIRE -704 -496 -704 -784
WIRE -352 -496 -704 -496
WIRE -80 -496 -80 -560
WIRE -16 -496 -80 -496
WIRE 48 -496 48 -576
WIRE 224 -480 160 -480
WIRE 1232 -480 864 -480
WIRE -752 -464 -752 -752
WIRE -240 -464 -752 -464
WIRE -128 -448 -128 -496
WIRE 1120 -448 912 -448
WIRE -16 -432 -16 -496
WIRE 1344 -400 1344 -464
WIRE 1360 -400 1344 -400
WIRE -608 -384 -608 -672
WIRE -240 -384 -608 -384
WIRE 1488 -384 1472 -384
WIRE -128 -368 -128 -416
WIRE 1360 -368 1344 -368
WIRE -512 -352 -512 -608
WIRE -240 -352 -512 -352
WIRE 224 -352 224 -480
WIRE 224 -352 128 -352
WIRE 1040 -320 1040 -1008
WIRE 1120 -320 1040 -320
WIRE 1344 -304 1344 -368
WIRE 1088 -288 1088 -1056
WIRE 1120 -288 1088 -288
WIRE -656 -272 -656 -528
WIRE -352 -272 -656 -272
WIRE 1488 -272 1488 -384
WIRE 128 -256 128 -352
WIRE 192 -256 128 -256
WIRE 1760 -256 1600 -256
WIRE -704 -240 -704 -496
WIRE -240 -240 -704 -240
WIRE 192 -224 160 -224
WIRE 336 -224 336 -752
WIRE 336 -224 304 -224
WIRE 864 -224 864 -480
WIRE 1232 -224 864 -224
WIRE -752 -208 -752 -464
WIRE -352 -208 -752 -208
WIRE -128 -192 -128 -240
WIRE 912 -192 912 -448
WIRE 1232 -192 912 -192
WIRE 1344 -144 1344 -208
WIRE 1360 -144 1344 -144
WIRE -560 -128 -560 -640
WIRE -352 -128 -560 -128
WIRE 1488 -128 1488 -240
WIRE 1488 -128 1472 -128
WIRE -128 -112 -128 -160
WIRE -16 -112 -16 -176
WIRE -16 -112 -80 -112
WIRE 1360 -112 1344 -112
WIRE -512 -96 -512 -352
WIRE -240 -96 -512 -96
WIRE 992 -80 992 -960
WIRE 1232 -80 992 -80
WIRE 336 -64 336 -224
WIRE -80 -48 -80 -112
WIRE 1040 -48 1040 -320
WIRE 1120 -48 1040 -48
WIRE 1344 -48 1344 -112
WIRE 48 -32 48 -464
WIRE 48 -32 32 -32
WIRE -656 -16 -656 -272
WIRE -352 -16 -656 -16
WIRE 128 -16 128 -256
WIRE 240 -16 128 -16
WIRE 1088 -16 1088 -288
WIRE 1232 -16 1088 -16
WIRE -704 16 -704 -240
WIRE -240 16 -704 16
WIRE 464 16 432 16
WIRE 160 32 160 -224
WIRE 160 32 32 32
WIRE 240 32 160 32
WIRE -752 48 -752 -208
WIRE -240 48 -752 48
WIRE -80 48 -80 -16
WIRE -16 48 -80 48
WIRE 464 48 464 16
WIRE 496 48 464 48
WIRE 720 48 688 48
WIRE 912 48 912 -192
WIRE 912 48 720 48
WIRE -128 80 -128 16
WIRE 192 80 192 -192
WIRE 192 80 128 80
WIRE 240 80 192 80
WIRE 1760 80 1760 -256
WIRE 1856 80 1760 80
WIRE -16 96 -16 48
WIRE 32 96 32 32
WIRE 496 96 432 96
WIRE 736 96 688 96
WIRE 864 96 864 -224
WIRE 864 96 736 96
WIRE 240 112 192 112
WIRE -608 128 -608 -384
WIRE -240 128 -608 128
WIRE 1856 128 1568 128
WIRE 752 144 688 144
WIRE 816 144 752 144
WIRE 1232 144 816 144
WIRE -560 160 -560 -128
WIRE -240 160 -560 160
WIRE -128 160 -128 112
WIRE 240 160 208 160
WIRE 1568 160 1568 128
WIRE 496 176 496 144
WIRE 496 176 432 176
WIRE 864 176 864 96
WIRE 1120 176 864 176
WIRE 1856 176 1696 176
WIRE -512 192 -512 -96
WIRE -240 192 -512 192
WIRE 240 208 224 208
WIRE 912 208 912 48
WIRE 1232 208 912 208
WIRE 1344 240 1344 176
WIRE 224 256 224 208
WIRE 720 256 720 48
WIRE 720 256 224 256
WIRE 208 288 208 160
WIRE 736 288 736 96
WIRE 736 288 208 288
WIRE 992 288 992 -80
WIRE 1232 288 992 288
WIRE 192 304 192 112
WIRE 752 304 752 144
WIRE 752 304 192 304
WIRE -656 320 -656 -16
WIRE -240 320 -656 320
WIRE 1040 320 1040 -48
WIRE 1120 320 1040 320
WIRE 1344 320 1344 272
WIRE -704 352 -704 16
WIRE -352 352 -704 352
WIRE 592 352 592 224
WIRE 1088 352 1088 -16
WIRE 1232 352 1088 352
WIRE -752 384 -752 48
WIRE -240 384 -752 384
WIRE 1456 384 1456 256
WIRE 1536 384 1456 384
WIRE -128 400 -128 352
WIRE 0 416 0 320
WIRE 0 416 -16 416
WIRE 816 432 816 144
WIRE 1120 432 816 432
WIRE -608 464 -608 128
WIRE -352 464 -608 464
WIRE 864 464 864 176
WIRE 1120 464 864 464
WIRE -560 496 -560 160
WIRE -240 496 -560 496
WIRE -128 496 -128 432
WIRE 912 496 912 208
WIRE 1232 496 912 496
WIRE 1344 496 1344 464
WIRE 1568 512 1568 384
WIRE 1568 512 1456 512
WIRE -512 528 -512 192
WIRE -352 528 -512 528
WIRE 992 560 992 288
WIRE 1232 560 992 560
WIRE 1344 576 1344 528
WIRE 1088 592 1088 352
WIRE 1232 592 1088 592
WIRE -656 608 -656 320
WIRE -352 608 -656 608
WIRE -704 640 -704 352
WIRE -240 640 -704 640
WIRE -752 672 -752 384
WIRE -240 672 -752 672
WIRE 816 672 816 432
WIRE 1120 672 816 672
WIRE -128 704 -128 640
WIRE 864 704 864 464
WIRE 1232 704 864 704
WIRE 32 720 32 320
WIRE 32 720 -16 720
WIRE 912 736 912 496
WIRE 1232 736 912 736
WIRE -608 752 -608 464
WIRE -240 752 -608 752
WIRE 1344 768 1344 704
WIRE -560 784 -560 496
WIRE -352 784 -560 784
WIRE -128 784 -128 736
WIRE 1600 784 1600 384
WIRE 1600 784 1456 784
WIRE -512 816 -512 528
WIRE -240 816 -512 816
WIRE 992 816 992 560
WIRE 1120 816 992 816
WIRE 1040 848 1040 320
WIRE 1232 848 1040 848
WIRE 1344 848 1344 800
WIRE 1088 880 1088 592
WIRE 1232 880 1088 880
WIRE -656 896 -656 608
WIRE -240 896 -656 896
WIRE -704 928 -704 640
WIRE -352 928 -704 928
WIRE -752 960 -752 672
WIRE -352 960 -752 960
WIRE -128 992 -128 928
WIRE 64 1008 64 320
WIRE 64 1008 -16 1008
WIRE 864 1008 864 704
WIRE 1232 1008 864 1008
WIRE -608 1040 -608 752
WIRE -352 1040 -608 1040
WIRE 912 1040 912 736
WIRE 1232 1040 912 1040
WIRE -560 1072 -560 784
WIRE -352 1072 -560 1072
WIRE -128 1072 -128 1024
WIRE 1344 1072 1344 1024
WIRE -512 1104 -512 816
WIRE -240 1104 -512 1104
WIRE 992 1120 992 816
WIRE 1232 1120 992 1120
WIRE 1040 1152 1040 848
WIRE 1232 1152 1040 1152
WIRE 1344 1152 1344 1104
WIRE 1088 1184 1088 880
WIRE 1232 1184 1088 1184
WIRE 1456 1200 1456 1088
WIRE 1696 1216 1696 176
WIRE 1696 1216 1568 1216
WIRE -704 1232 -704 928
WIRE -240 1232 -704 1232
WIRE -752 1264 -752 960
WIRE -240 1264 -752 1264
WIRE 816 1264 816 672
WIRE 1232 1264 816 1264
WIRE -128 1296 -128 1248
WIRE 912 1296 912 1040
WIRE 1120 1296 912 1296
WIRE 0 1312 -16 1312
WIRE 1344 1328 1344 1280
WIRE -608 1344 -608 1040
WIRE -352 1344 -608 1344
WIRE 1456 1344 1456 1232
WIRE -560 1376 -560 1072
WIRE -240 1376 -560 1376
WIRE -128 1376 -128 1328
WIRE 992 1376 992 1120
WIRE 1120 1376 992 1376
WIRE -512 1408 -512 1104
WIRE -240 1408 -512 1408
WIRE 1040 1408 1040 1152
WIRE 1120 1408 1040 1408
WIRE 1344 1408 1344 1360
WIRE 0 1440 0 1312
WIRE 16 1440 0 1440
WIRE 1088 1440 1088 1184
WIRE 1232 1440 1088 1440
WIRE 128 1456 128 80
WIRE 16 1472 0 1472
WIRE -656 1488 -656 896
WIRE -352 1488 -656 1488
WIRE -704 1520 -704 1232
WIRE -352 1520 -704 1520
WIRE -752 1552 -752 1264
WIRE -240 1552 -752 1552
WIRE -128 1568 -128 1520
WIRE 0 1584 0 1472
WIRE 0 1584 -16 1584
WIRE -608 1632 -608 1344
WIRE -240 1632 -608 1632
WIRE -128 1648 -128 1600
WIRE -512 1664 -512 1408
WIRE -240 1664 -512 1664
WIRE -656 1712 -656 1488
WIRE 816 1712 816 1264
WIRE 816 1712 -656 1712
WIRE -704 1760 -704 1520
WIRE 864 1760 864 1008
WIRE 864 1760 -704 1760
WIRE -752 1808 -752 1552
WIRE 912 1808 912 1296
WIRE 912 1808 -752 1808
FLAG -512 -1024 X0
FLAG -560 -1024 X1
FLAG -608 -1024 X2
FLAG 1856 80 Y0
FLAG 1856 128 Y1
FLAG 1856 176 Y2
FLAG 592 352 RESET
FLAG 448 -848 RESET
SYMBOL 3bit_register 592 96 R0
SYMATTR InstName X1
SYMBOL 74HCT\\74hct08 1408 -448 R0
WINDOW 0 -16 16 Invisible 2
WINDOW 3 -32 112 Invisible 2
SYMATTR InstName U33
SYMBOL 74HCT\\74hct04 1168 -512 R0
WINDOW 0 -16 32 Invisible 2
WINDOW 3 -32 96 Invisible 2
SYMATTR InstName U35
SYMBOL 74HCT\\74hct04 1168 -384 R0
WINDOW 0 -16 32 Invisible 2
WINDOW 3 -32 96 Invisible 2
SYMATTR InstName U36
SYMBOL 74HCT\\74hct04 1168 -352 R0
WINDOW 0 -16 32 Invisible 2
WINDOW 3 -32 96 Invisible 2
SYMATTR InstName U37
SYMBOL 74HCT\\74hct08 1280 -528 R0
WINDOW 0 -16 16 Invisible 2
WINDOW 3 -32 112 Invisible 2
SYMATTR InstName U38
SYMBOL 74HCT\\74hct08 1280 -368 R0
WINDOW 0 -16 16 Invisible 2
WINDOW 3 -32 112 Invisible 2
SYMATTR InstName U39
SYMBOL 74HCT\\74hct11 1280 -128 R0
WINDOW 0 -18 17 Invisible 2
WINDOW 3 -32 144 Invisible 2
SYMATTR InstName U40
SYMBOL 74HCT\\74hct08 1408 -192 R0
WINDOW 0 -16 16 Invisible 2
WINDOW 3 -32 112 Invisible 2
SYMATTR InstName U41
SYMBOL 74HCT\\74hct08 1280 -272 R0
WINDOW 0 -16 16 Invisible 2
WINDOW 3 -32 112 Invisible 2
SYMATTR InstName U42
SYMBOL 74HCT\\74hct04 1168 -112 R0
WINDOW 0 -16 32 Invisible 2
WINDOW 3 -32 96 Invisible 2
SYMATTR InstName U43
SYMBOL 74HCT\\74hct32 1536 -320 R0
WINDOW 0 -16 16 Invisible 2
WINDOW 3 -32 112 Invisible 2
SYMATTR InstName U44
SYMBOL multiplexer6to3 336 96 R0
SYMATTR InstName X2
SYMBOL 74HCT\\74hct27 240 -304 R0
WINDOW 0 -16 16 Invisible 2
WINDOW 3 -32 144 Invisible 2
SYMATTR InstName U66
SYMBOL multiplexer6to3 128 -1008 M180
SYMATTR InstName X3
SYMBOL 74HCT\\74hct11 -192 -864 R0
WINDOW 0 -18 17 Invisible 2
WINDOW 3 -32 144 Invisible 2
SYMATTR InstName U1
SYMBOL 74HCT\\74hct11 -192 -720 R0
WINDOW 0 -18 17 Invisible 2
WINDOW 3 -32 144 Invisible 2
SYMATTR InstName U2
SYMBOL 74HCT\\74hct11 -192 -576 R0
WINDOW 0 -18 17 Invisible 2
WINDOW 3 -32 144 Invisible 2
SYMATTR InstName U3
SYMBOL 74HCT\\74hct08 -192 -432 R0
WINDOW 0 -16 16 Invisible 2
WINDOW 3 -32 112 Invisible 2
SYMATTR InstName U4
SYMBOL 74HCT\\74hct11 -192 -320 R0
WINDOW 0 -18 17 Invisible 2
WINDOW 3 -32 144 Invisible 2
SYMATTR InstName U5
SYMBOL 74HCT\\74hct08 -192 -176 R0
WINDOW 0 -16 16 Invisible 2
WINDOW 3 -32 112 Invisible 2
SYMATTR InstName U6
SYMBOL 74HCT\\74hct11 -192 -64 R0
WINDOW 0 -18 17 Invisible 2
WINDOW 3 -32 144 Invisible 2
SYMATTR InstName U7
SYMBOL 74HCT\\74hct11 -192 80 R0
WINDOW 0 -18 17 Invisible 2
WINDOW 3 -32 144 Invisible 2
SYMATTR InstName U8
SYMBOL 74HCT\\74hct08 -80 -768 R0
WINDOW 0 -16 16 Invisible 2
WINDOW 3 -32 112 Invisible 2
SYMATTR InstName U9
SYMBOL 74HCT\\74hct08 -80 -496 R0
WINDOW 0 -16 16 Invisible 2
WINDOW 3 -32 112 Invisible 2
SYMATTR InstName U10
SYMBOL 74HCT\\74hct08 -80 -240 R0
WINDOW 0 -16 16 Invisible 2
WINDOW 3 -32 112 Invisible 2
SYMATTR InstName U11
SYMBOL 74HCT\\74hct08 -80 32 R0
WINDOW 0 -16 16 Invisible 2
WINDOW 3 -32 112 Invisible 2
SYMATTR InstName U12
SYMBOL 74HCT\\74hct32 -32 -640 R0
WINDOW 0 -16 16 Invisible 2
WINDOW 3 -32 112 Invisible 2
SYMATTR InstName U13
SYMBOL 74HCT\\74hct32 -32 -96 R0
WINDOW 0 -16 16 Invisible 2
WINDOW 3 -32 112 Invisible 2
SYMATTR InstName U14
SYMBOL 74HCT\\74hct32 96 -544 R0
WINDOW 0 -16 16 Invisible 2
WINDOW 3 -32 112 Invisible 2
SYMATTR InstName U15
SYMBOL 74HCT\\74hct04 -304 -848 R0
WINDOW 0 -16 32 Invisible 2
WINDOW 3 -32 96 Invisible 2
SYMATTR InstName U16
SYMBOL 74HCT\\74hct04 -304 -736 R0
WINDOW 0 -16 32 Invisible 2
WINDOW 3 -32 96 Invisible 2
SYMATTR InstName U17
SYMBOL 74HCT\\74hct04 -304 -672 R0
WINDOW 0 -16 32 Invisible 2
WINDOW 3 -32 96 Invisible 2
SYMATTR InstName U18
SYMBOL 74HCT\\74hct04 -304 -592 R0
WINDOW 0 -16 32 Invisible 2
WINDOW 3 -32 96 Invisible 2
SYMATTR InstName U19
SYMBOL 74HCT\\74hct04 -304 -560 R0
WINDOW 0 -16 32 Invisible 2
WINDOW 3 -32 96 Invisible 2
SYMATTR InstName U20
SYMBOL 74HCT\\74hct04 -304 -336 R0
WINDOW 0 -16 32 Invisible 2
WINDOW 3 -32 96 Invisible 2
SYMATTR InstName U21
SYMBOL 74HCT\\74hct04 -304 -272 R0
WINDOW 0 -16 32 Invisible 2
WINDOW 3 -32 96 Invisible 2
SYMATTR InstName U22
SYMBOL 74HCT\\74hct04 -304 -192 R0
WINDOW 0 -16 32 Invisible 2
WINDOW 3 -32 96 Invisible 2
SYMATTR InstName U23
SYMBOL 74HCT\\74hct04 -304 -80 R0
WINDOW 0 -16 32 Invisible 2
WINDOW 3 -32 96 Invisible 2
SYMATTR InstName U24
SYMBOL 74HCT\\74hct11 -192 272 R0
WINDOW 0 -18 17 Invisible 2
WINDOW 3 -32 144 Invisible 2
SYMATTR InstName U25
SYMBOL 74HCT\\74hct11 -192 416 R0
WINDOW 0 -18 17 Invisible 2
WINDOW 3 -32 144 Invisible 2
SYMATTR InstName U26
SYMBOL 74HCT\\74hct11 -192 560 R0
WINDOW 0 -18 17 Invisible 2
WINDOW 3 -32 144 Invisible 2
SYMATTR InstName U27
SYMBOL 74HCT\\74hct11 -192 704 R0
WINDOW 0 -18 17 Invisible 2
WINDOW 3 -32 144 Invisible 2
SYMATTR InstName U28
SYMBOL 74HCT\\74hct11 -192 848 R0
WINDOW 0 -18 17 Invisible 2
WINDOW 3 -32 144 Invisible 2
SYMATTR InstName U29
SYMBOL 74HCT\\74hct11 -192 992 R0
WINDOW 0 -18 17 Invisible 2
WINDOW 3 -32 144 Invisible 2
SYMATTR InstName U30
SYMBOL 74HCT\\74hct08 -80 352 R0
WINDOW 0 -16 16 Invisible 2
WINDOW 3 -32 112 Invisible 2
SYMATTR InstName U31
SYMBOL 74HCT\\74hct08 -80 656 R0
WINDOW 0 -16 16 Invisible 2
WINDOW 3 -32 112 Invisible 2
SYMATTR InstName U32
SYMBOL 74HCT\\74hct08 -80 944 R0
WINDOW 0 -16 16 Invisible 2
WINDOW 3 -32 112 Invisible 2
SYMATTR InstName U34
SYMBOL 74HCT\\74hct27 -48 272 R270
WINDOW 0 -16 16 Invisible 2
WINDOW 3 -32 144 Invisible 2
SYMATTR InstName U67
SYMBOL 74HCT\\74hct04 -32 160 R270
WINDOW 0 -16 32 Invisible 2
WINDOW 3 -32 96 Invisible 2
SYMATTR InstName U68
SYMBOL 74HCT\\74hct04 -304 288 R0
WINDOW 0 -16 32 Invisible 2
WINDOW 3 -32 96 Invisible 2
SYMATTR InstName U69
SYMBOL 74HCT\\74hct04 -304 400 R0
WINDOW 0 -16 32 Invisible 2
WINDOW 3 -32 96 Invisible 2
SYMATTR InstName U70
SYMBOL 74HCT\\74hct04 -304 464 R0
WINDOW 0 -16 32 Invisible 2
WINDOW 3 -32 96 Invisible 2
SYMATTR InstName U71
SYMBOL 74HCT\\74hct04 -304 544 R0
WINDOW 0 -16 32 Invisible 2
WINDOW 3 -32 96 Invisible 2
SYMATTR InstName U72
SYMBOL 74HCT\\74hct04 -304 720 R0
WINDOW 0 -16 32 Invisible 2
WINDOW 3 -32 96 Invisible 2
SYMATTR InstName U73
SYMBOL 74HCT\\74hct04 -304 864 R0
WINDOW 0 -16 32 Invisible 2
WINDOW 3 -32 96 Invisible 2
SYMATTR InstName U74
SYMBOL 74HCT\\74hct04 -304 896 R0
WINDOW 0 -16 32 Invisible 2
WINDOW 3 -32 96 Invisible 2
SYMATTR InstName U75
SYMBOL 74HCT\\74hct04 -304 976 R0
WINDOW 0 -16 32 Invisible 2
WINDOW 3 -32 96 Invisible 2
SYMATTR InstName U76
SYMBOL 74HCT\\74hct04 -304 1008 R0
WINDOW 0 -16 32 Invisible 2
WINDOW 3 -32 96 Invisible 2
SYMATTR InstName U77
SYMBOL 74HCT\\74hct08 -192 1184 R0
WINDOW 0 -16 16 Invisible 2
WINDOW 3 -32 112 Invisible 2
SYMATTR InstName U78
SYMBOL 74HCT\\74hct11 -192 1296 R0
WINDOW 0 -18 17 Invisible 2
WINDOW 3 -32 144 Invisible 2
SYMATTR InstName U79
SYMBOL 74HCT\\74hct11 -192 1440 R0
WINDOW 0 -18 17 Invisible 2
WINDOW 3 -32 144 Invisible 2
SYMATTR InstName U80
SYMBOL 74HCT\\74hct08 -192 1584 R0
WINDOW 0 -16 16 Invisible 2
WINDOW 3 -32 112 Invisible 2
SYMATTR InstName U81
SYMBOL 74HCT\\74hct08 -80 1248 R0
WINDOW 0 -16 16 Invisible 2
WINDOW 3 -32 112 Invisible 2
SYMATTR InstName U82
SYMBOL 74HCT\\74hct08 -80 1520 R0
WINDOW 0 -16 16 Invisible 2
WINDOW 3 -32 112 Invisible 2
SYMATTR InstName U83
SYMBOL 74HCT\\74hct32 64 1392 R0
WINDOW 0 -16 16 Invisible 2
WINDOW 3 -32 112 Invisible 2
SYMATTR InstName U84
SYMBOL 74HCT\\74hct04 -304 1280 R0
WINDOW 0 -16 32 Invisible 2
WINDOW 3 -32 96 Invisible 2
SYMATTR InstName U85
SYMBOL 74HCT\\74hct04 -304 1424 R0
WINDOW 0 -16 32 Invisible 2
WINDOW 3 -32 96 Invisible 2
SYMATTR InstName U86
SYMBOL 74HCT\\74hct04 -304 1456 R0
WINDOW 0 -16 32 Invisible 2
WINDOW 3 -32 96 Invisible 2
SYMATTR InstName U87
SYMBOL 74HCT\\74hct11 1280 96 R0
WINDOW 0 -18 17 Invisible 2
WINDOW 3 -32 144 Invisible 2
SYMATTR InstName U45
SYMBOL 74HCT\\74hct11 1280 240 R0
WINDOW 0 -18 17 Invisible 2
WINDOW 3 -32 144 Invisible 2
SYMATTR InstName U46
SYMBOL 74HCT\\74hct11 1280 384 R0
WINDOW 0 -18 17 Invisible 2
WINDOW 3 -32 144 Invisible 2
SYMATTR InstName U47
SYMBOL 74HCT\\74hct08 1280 512 R0
WINDOW 0 -16 16 Invisible 2
WINDOW 3 -32 112 Invisible 2
SYMATTR InstName U48
SYMBOL 74HCT\\74hct11 1280 624 R0
WINDOW 0 -18 17 Invisible 2
WINDOW 3 -32 144 Invisible 2
SYMATTR InstName U49
SYMBOL 74HCT\\74hct11 1280 768 R0
WINDOW 0 -18 17 Invisible 2
WINDOW 3 -32 144 Invisible 2
SYMATTR InstName U50
SYMBOL 74HCT\\74hct08 1392 192 R0
WINDOW 0 -16 16 Invisible 2
WINDOW 3 -32 112 Invisible 2
SYMATTR InstName U51
SYMBOL 74HCT\\74hct08 1392 448 R0
WINDOW 0 -16 16 Invisible 2
WINDOW 3 -32 112 Invisible 2
SYMATTR InstName U52
SYMBOL 74HCT\\74hct08 1392 720 R0
WINDOW 0 -16 16 Invisible 2
WINDOW 3 -32 112 Invisible 2
SYMATTR InstName U53
SYMBOL 74HCT\\74hct27 1488 336 R270
WINDOW 0 -16 16 Invisible 2
WINDOW 3 -32 144 Invisible 2
SYMATTR InstName U54
SYMBOL 74HCT\\74hct04 1504 224 R270
WINDOW 0 -16 32 Invisible 2
WINDOW 3 -32 96 Invisible 2
SYMATTR InstName U55
SYMBOL 74HCT\\74hct04 1168 112 R0
WINDOW 0 -16 32 Invisible 2
WINDOW 3 -32 96 Invisible 2
SYMATTR InstName U56
SYMBOL 74HCT\\74hct04 1168 256 R0
WINDOW 0 -16 32 Invisible 2
WINDOW 3 -32 96 Invisible 2
SYMATTR InstName U57
SYMBOL 74HCT\\74hct04 1168 368 R0
WINDOW 0 -16 32 Invisible 2
WINDOW 3 -32 96 Invisible 2
SYMATTR InstName U58
SYMBOL 74HCT\\74hct04 1168 400 R0
WINDOW 0 -16 32 Invisible 2
WINDOW 3 -32 96 Invisible 2
SYMATTR InstName U60
SYMBOL 74HCT\\74hct04 1168 608 R0
WINDOW 0 -16 32 Invisible 2
WINDOW 3 -32 96 Invisible 2
SYMATTR InstName U61
SYMBOL 74HCT\\74hct04 1168 752 R0
WINDOW 0 -16 32 Invisible 2
WINDOW 3 -32 96 Invisible 2
SYMATTR InstName U62
SYMBOL 74HCT\\74hct08 1280 960 R0
WINDOW 0 -16 16 Invisible 2
WINDOW 3 -32 112 Invisible 2
SYMATTR InstName U59
SYMBOL 74HCT\\74hct11 1280 1072 R0
WINDOW 0 -18 17 Invisible 2
WINDOW 3 -32 144 Invisible 2
SYMATTR InstName U63
SYMBOL 74HCT\\74hct08 1280 1216 R0
WINDOW 0 -16 16 Invisible 2
WINDOW 3 -32 112 Invisible 2
SYMATTR InstName U64
SYMBOL 74HCT\\74hct11 1280 1328 R0
WINDOW 0 -18 17 Invisible 2
WINDOW 3 -32 144 Invisible 2
SYMATTR InstName U65
SYMBOL 74HCT\\74hct08 1392 1024 R0
WINDOW 0 -16 16 Invisible 2
WINDOW 3 -32 112 Invisible 2
SYMATTR InstName U88
SYMBOL 74HCT\\74hct08 1392 1280 R0
WINDOW 0 -16 16 Invisible 2
WINDOW 3 -32 112 Invisible 2
SYMATTR InstName U89
SYMBOL 74HCT\\74hct32 1504 1152 R0
WINDOW 0 -16 16 Invisible 2
WINDOW 3 -32 112 Invisible 2
SYMATTR InstName U90
SYMBOL 74HCT\\74hct04 1168 1232 R0
WINDOW 0 -16 32 Invisible 2
WINDOW 3 -32 96 Invisible 2
SYMATTR InstName U91
SYMBOL 74HCT\\74hct04 1168 1312 R0
WINDOW 0 -16 32 Invisible 2
WINDOW 3 -32 96 Invisible 2
SYMATTR InstName U92
SYMBOL 74HCT\\74hct04 1168 1344 R0
WINDOW 0 -16 32 Invisible 2
WINDOW 3 -32 96 Invisible 2
SYMATTR InstName U93
SYMBOL 3bit_register_for_output 448 -1008 R0
SYMATTR InstName X4
