Version 4
SHEET 1 1120 964
WIRE -400 -256 -400 -288
WIRE 464 -256 -400 -256
WIRE -352 -208 -352 -288
WIRE 432 -208 -352 -208
WIRE -192 -80 -512 -80
WIRE -400 -48 -400 -256
WIRE -192 -48 -400 -48
WIRE -80 0 -80 -64
WIRE -192 16 -480 16
WIRE 656 16 480 16
WIRE 992 32 768 32
WIRE -400 48 -400 -48
WIRE -192 48 -400 48
WIRE 464 48 464 -256
WIRE 544 48 464 48
WIRE 144 64 144 32
WIRE 144 64 80 64
WIRE 80 80 80 64
WIRE 128 80 80 80
WIRE 416 80 320 80
WIRE -80 96 -80 64
WIRE -80 96 -448 96
WIRE 416 112 416 80
WIRE 656 112 416 112
WIRE 128 128 32 128
WIRE 384 128 320 128
WIRE 480 128 480 16
WIRE 480 128 384 128
WIRE -192 144 -544 144
WIRE 464 144 464 48
WIRE 544 144 464 144
WIRE 992 144 992 32
WIRE 1072 144 992 144
WIRE 32 160 32 128
WIRE 32 160 -80 160
WIRE -400 176 -400 48
WIRE -192 176 -400 176
WIRE 768 176 768 128
WIRE 128 192 32 192
WIRE 352 192 320 192
WIRE 1072 192 880 192
WIRE 352 224 352 192
WIRE 512 224 352 224
WIRE 656 224 512 224
WIRE -512 240 -512 -80
WIRE -192 240 -512 240
WIRE 128 240 80 240
WIRE 1072 240 992 240
WIRE 32 256 32 192
WIRE 32 256 -80 256
WIRE 464 256 464 144
WIRE 544 256 464 256
WIRE 768 256 768 208
WIRE -400 272 -400 176
WIRE -304 272 -400 272
WIRE 432 288 432 -208
WIRE 544 288 432 288
WIRE 224 320 224 288
WIRE -480 336 -480 16
WIRE -192 336 -480 336
WIRE 480 352 480 128
WIRE 656 352 480 352
WIRE -400 368 -400 272
WIRE -304 368 -400 368
WIRE 80 368 80 240
WIRE 80 368 -80 368
WIRE 464 384 464 256
WIRE 656 384 464 384
WIRE -352 400 -352 -208
WIRE -304 400 -352 400
WIRE 768 416 768 368
WIRE -448 432 -448 96
WIRE 320 432 320 240
WIRE 320 432 -448 432
WIRE 512 432 512 224
WIRE 656 432 512 432
WIRE 992 448 992 240
WIRE -480 464 -480 336
WIRE 352 464 352 224
WIRE 352 464 -480 464
WIRE 464 464 464 384
WIRE 656 464 464 464
WIRE -512 496 -512 240
WIRE 384 496 384 128
WIRE 384 496 -512 496
WIRE 768 512 768 480
WIRE 768 512 480 512
WIRE -544 528 -544 144
WIRE 416 528 416 112
WIRE 416 528 -544 528
WIRE 320 608 320 432
WIRE 480 608 480 512
WIRE 480 608 320 608
FLAG -352 -288 X1
FLAG -400 -288 X2
FLAG 224 320 RESET
FLAG 1072 144 Y0
FLAG 1072 192 Y1
FLAG 1072 240 Y2
SYMBOL 4bit_register 224 160 R0
SYMATTR InstName X1
SYMBOL 74HCT\\74hct08 -144 -128 R0
WINDOW 0 -16 16 Invisible 2
WINDOW 3 -32 112 Invisible 2
SYMATTR InstName U17
SYMBOL 74HCT\\74hct08 -144 -32 R0
WINDOW 0 -16 16 Invisible 2
WINDOW 3 -32 112 Invisible 2
SYMATTR InstName U1
SYMBOL 74HCT\\74hct27 -32 -48 R0
WINDOW 0 -16 16 Invisible 2
WINDOW 3 -32 144 Invisible 2
SYMATTR InstName U2
SYMBOL 74HCT\\74hct08 -144 96 R0
WINDOW 0 -16 16 Invisible 2
WINDOW 3 -32 112 Invisible 2
SYMATTR InstName U18
SYMBOL 74HCT\\74hct08 -144 192 R0
WINDOW 0 -16 16 Invisible 2
WINDOW 3 -32 112 Invisible 2
SYMATTR InstName U19
SYMBOL 74HCT\\74hct11 -144 288 R0
WINDOW 0 -16 16 Invisible 2
WINDOW 3 -62 142 Invisible 2
SYMATTR InstName U20
SYMBOL 74HCT\\74hct04 -256 208 R0
WINDOW 0 -16 32 Invisible 2
WINDOW 3 -32 96 Invisible 2
SYMATTR InstName U21
SYMBOL 74HCT\\74hct04 -256 304 R0
WINDOW 0 -16 32 Invisible 2
WINDOW 3 -32 96 Invisible 2
SYMATTR InstName U22
SYMBOL 74HCT\\74hct04 -256 336 R0
WINDOW 0 -16 32 Invisible 2
WINDOW 3 -32 96 Invisible 2
SYMATTR InstName U23
SYMBOL 74HCT\\74hct08 704 -32 R0
WINDOW 0 -16 16 Invisible 2
WINDOW 3 -32 112 Invisible 2
SYMATTR InstName U24
SYMBOL 74HCT\\74hct04 592 -16 R0
WINDOW 0 -16 32 Invisible 2
WINDOW 3 -32 96 Invisible 2
SYMATTR InstName U25
SYMBOL 74HCT\\74hct08 704 64 R0
WINDOW 0 -16 16 Invisible 2
WINDOW 3 -32 112 Invisible 2
SYMATTR InstName U26
SYMBOL 74HCT\\74hct04 592 80 R0
WINDOW 0 -16 32 Invisible 2
WINDOW 3 -32 96 Invisible 2
SYMATTR InstName U27
SYMBOL 74HCT\\74hct11 704 176 R0
WINDOW 0 -16 16 Invisible 2
WINDOW 3 -62 142 Invisible 2
SYMATTR InstName U28
SYMBOL 74HCT\\74hct04 80 -32 R0
WINDOW 0 -16 32 Invisible 2
WINDOW 3 -32 96 Invisible 2
SYMATTR InstName U29
SYMBOL 74HCT\\74hct32 816 128 R0
WINDOW 0 -16 16 Invisible 2
WINDOW 3 -32 112 Invisible 2
SYMATTR InstName U30
SYMBOL 74HCT\\74hct08 704 304 R0
WINDOW 0 -16 16 Invisible 2
WINDOW 3 -32 112 Invisible 2
SYMATTR InstName U31
SYMBOL 74HCT\\74hct08 704 384 R0
WINDOW 0 -16 16 Invisible 2
WINDOW 3 -32 112 Invisible 2
SYMATTR InstName U32
SYMBOL 74HCT\\74hct27 816 368 R0
WINDOW 0 -16 16 Invisible 2
WINDOW 3 -32 144 Invisible 2
SYMATTR InstName U33
SYMBOL 74HCT\\74hct04 928 384 R0
WINDOW 0 -16 32 Invisible 2
WINDOW 3 -32 96 Invisible 2
SYMATTR InstName U34
SYMBOL 74HCT\\74hct04 592 192 R0
WINDOW 0 -16 32 Invisible 2
WINDOW 3 -32 96 Invisible 2
SYMATTR InstName U35
SYMBOL 74HCT\\74hct04 592 224 R0
WINDOW 0 -16 32 Invisible 2
WINDOW 3 -32 96 Invisible 2
SYMATTR InstName U36
TEXT -432 -424 Left 2 !.lib 74hct.lib
TEXT -256 -584 Left 2 !.include 90nm_bulk.txt
