Version 4
SHEET 1 880 680
WIRE 128 48 64 48
WIRE 384 64 240 64
WIRE 128 80 64 80
WIRE 64 112 64 80
WIRE 64 224 -16 224
WIRE 128 224 64 224
WIRE 352 240 240 240
WIRE 128 256 -16 256
WIRE 352 320 352 240
WIRE 384 320 384 64
WIRE 368 448 368 432
FLAG 64 48 D0
FLAG -16 256 D1
FLAG -16 224 S
FLAG 368 448 Y
SYMBOL 74HCT\\74hct08 176 0 R0
SYMATTR InstName U1
SYMBOL 74HCT\\74hct08 176 176 R0
SYMATTR InstName U2
SYMBOL 74HCT\\74hct04 0 176 R270
SYMATTR InstName U3
SYMBOL 74HCT\\74hct32 432 368 R90
SYMATTR InstName U4
