Version 4
SHEET 1 880 680
WIRE 192 -48 192 -64
WIRE 128 0 64 0
WIRE 272 16 240 16
WIRE 128 32 64 32
WIRE 192 112 192 96
WIRE 128 160 64 160
WIRE 272 176 240 176
WIRE 128 192 64 192
WIRE 192 272 192 256
WIRE 128 320 64 320
WIRE 272 336 240 336
WIRE 128 352 64 352
WIRE 192 432 192 416
WIRE 128 480 64 480
WIRE 272 496 240 496
WIRE 128 512 64 512
FLAG 192 256 S
FLAG 192 96 S
FLAG 192 -64 S
FLAG 64 0 A0
FLAG 64 32 B0
FLAG 64 160 A1
FLAG 64 192 B1
FLAG 64 320 A2
FLAG 64 352 B2
FLAG 272 336 Y2
FLAG 272 176 Y1
FLAG 272 16 Y0
FLAG 192 416 S
FLAG 64 480 A3
FLAG 64 512 B3
FLAG 272 496 Y3
SYMBOL multiplexer2to1 192 16 R0
SYMATTR InstName X1
SYMBOL multiplexer2to1 192 176 R0
SYMATTR InstName X2
SYMBOL multiplexer2to1 192 336 R0
SYMATTR InstName X3
SYMBOL multiplexer2to1 192 496 R0
SYMATTR InstName X4
