Version 4
SHEET 1 880 680
WIRE 112 16 -96 16
WIRE 368 96 304 96
WIRE -320 112 -320 16
WIRE -320 112 -400 112
WIRE -240 112 -320 112
WIRE 112 112 112 16
WIRE -400 144 -400 112
WIRE 384 160 304 160
WIRE -128 208 -128 112
WIRE 112 208 -128 208
WIRE 368 224 304 224
WIRE 208 288 -208 288
WIRE -208 320 -208 288
FLAG -208 400 0
FLAG -400 224 0
FLAG 480 112 0
FLAG 480 96 0
FLAG 496 160 0
FLAG 480 224 0
SYMBOL voltage -208 304 R0
WINDOW 123 0 0 Left 2
WINDOW 39 0 0 Left 2
SYMATTR InstName V1
SYMATTR Value PULSE(0 5 0 10n 10n 1m 20m)
SYMBOL voltage -400 128 R0
WINDOW 123 0 0 Left 2
WINDOW 39 0 0 Left 2
SYMATTR InstName V2
SYMATTR Value PULSE(0 5 10n 10n 10n 10m 20m)
SYMBOL 74HCT\\74hct04 -192 48 R0
SYMATTR InstName U1
SYMBOL 74HCT\\74hct04 416 32 R0
SYMATTR InstName U2
SYMBOL 74HCT\\74hct04 432 96 R0
SYMATTR InstName U3
SYMBOL 74HCT\\74hct04 416 160 R0
SYMATTR InstName U4
SYMBOL fst2 208 160 R0
SYMATTR InstName X1
SYMBOL 74HCT\\74hct04 -272 -48 R0
SYMATTR InstName U5
SYMBOL 74HCT\\74hct04 -160 -48 R0
SYMATTR InstName U6
TEXT -448 -64 Left 2 !.lib 74hct.lib
TEXT -448 0 Left 2 !.include 90nm_bulk.txt
TEXT 304 376 Left 2 !.tran 0 20m 0 1u
