Version 4
SHEET 1 880 680
WIRE 112 16 -96 16
WIRE 336 96 304 96
WIRE 368 96 336 96
WIRE 512 96 480 96
WIRE -320 112 -320 16
WIRE -320 112 -400 112
WIRE -240 112 -320 112
WIRE 112 112 112 16
WIRE -400 144 -400 112
WIRE 336 160 304 160
WIRE 384 160 336 160
WIRE 528 160 496 160
WIRE -128 208 -128 112
WIRE 80 208 -128 208
WIRE 112 208 80 208
WIRE 368 224 304 224
WIRE 512 224 480 224
WIRE -32 288 -208 288
WIRE 208 288 -32 288
WIRE -208 320 -208 288
FLAG -208 400 0
FLAG -400 224 0
FLAG -32 288 reset
FLAG 80 208 x2
FLAG 336 160 y1
FLAG 336 96 y0
FLAG 624 224 0
FLAG 640 160 0
FLAG 624 96 0
SYMBOL voltage -208 304 R0
WINDOW 123 0 0 Left 2
WINDOW 39 0 0 Left 2
SYMATTR InstName V1
SYMATTR Value PULSE(0 5 1m 10n 10n 1m 20m)
SYMBOL voltage -400 128 R0
WINDOW 123 0 0 Left 2
WINDOW 39 0 0 Left 2
SYMATTR InstName V2
SYMATTR Value PULSE(0 5 0 10n 10n 10m 20m)
SYMBOL 74HCT\\74hct04 -192 48 R0
SYMATTR InstName U1
SYMBOL 74HCT\\74hct04 416 32 R0
SYMATTR InstName U2
SYMBOL 74HCT\\74hct04 432 96 R0
SYMATTR InstName U3
SYMBOL 74HCT\\74hct04 416 160 R0
SYMATTR InstName U4
SYMBOL fst2 208 160 R0
SYMATTR InstName X1
SYMBOL 74HCT\\74hct04 -272 -48 R0
SYMATTR InstName U5
SYMBOL 74HCT\\74hct04 -160 -48 R0
SYMATTR InstName U6
SYMBOL 74HCT\\74hct04 560 32 R0
SYMATTR InstName U7
SYMBOL 74HCT\\74hct04 576 96 R0
SYMATTR InstName U8
SYMBOL 74HCT\\74hct04 560 160 R0
SYMATTR InstName U9
TEXT -448 -64 Left 2 !.lib 74hct.lib
TEXT 304 376 Left 2 !.tran 0 20m 0 1p
