Version 4
SHEET 1 880 740
WIRE -80 192 -160 192
WIRE -160 304 -160 192
WIRE -160 304 -544 304
WIRE -32 320 -32 272
WIRE 240 320 -32 320
WIRE 368 320 240 320
WIRE -544 336 -544 304
WIRE -32 352 -32 320
WIRE -160 432 -160 304
WIRE -80 432 -160 432
WIRE 240 432 240 320
WIRE -544 448 -544 416
WIRE 368 448 368 320
WIRE 240 544 240 512
WIRE 368 544 368 512
WIRE -320 624 -320 592
WIRE -320 720 -320 704
FLAG -320 592 VDD
FLAG 240 544 0
FLAG 368 544 0
FLAG -32 400 0
FLAG -544 448 0
FLAG -32 224 VDD
FLAG -32 448 0
FLAG -32 176 VDD
FLAG -320 720 0
SYMBOL nmos4 -80 352 R0
WINDOW 123 56 100 Left 2
SYMATTR InstName M1
SYMATTR Value2 l=90n w=200n
SYMBOL pmos4 -80 272 M180
WINDOW 0 63 5 Left 2
WINDOW 3 67 95 Left 2
WINDOW 123 67 67 Left 2
SYMATTR InstName M2
SYMATTR Value2 l=90n w=400n
SYMBOL voltage -544 320 R0
WINDOW 123 0 0 Left 2
WINDOW 39 0 0 Left 2
SYMATTR InstName V1
SYMATTR Value PULSE(0 1 1n 10p 10p 2n 4n)
SYMBOL voltage -320 608 R0
WINDOW 123 0 0 Left 2
WINDOW 39 0 0 Left 2
SYMATTR InstName VDD1
SYMATTR Value 1
SYMBOL res 224 416 R0
SYMATTR InstName R1
SYMATTR Value 100k
SYMBOL cap 352 448 R0
SYMATTR InstName C1
SYMATTR Value 100f
TEXT -512 8 Left 2 !.include 90nm_bulk.txt
TEXT -608 160 Left 2 !.tran 0 8n 0 1p
