Version 4
SHEET 1 880 680
WIRE 160 48 112 48
WIRE 112 64 112 48
WIRE 112 64 -208 64
WIRE 160 64 112 64
WIRE 112 80 112 64
WIRE 160 80 112 80
WIRE 560 80 304 80
WIRE 112 96 112 80
WIRE 160 96 112 96
WIRE -496 112 -592 112
WIRE -208 112 -208 64
WIRE -208 112 -272 112
WIRE 160 112 80 112
WIRE 560 112 560 80
WIRE 560 112 336 112
WIRE -592 128 -592 112
WIRE 160 128 96 128
WIRE 560 128 560 112
WIRE 560 128 304 128
WIRE 160 144 112 144
WIRE -208 160 -208 112
WIRE -176 160 -208 160
WIRE 80 160 80 112
WIRE 80 160 -64 160
WIRE 96 160 96 128
WIRE 96 160 80 160
WIRE 112 160 112 144
WIRE 112 160 96 160
WIRE 160 160 112 160
FLAG 672 112 0
FLAG -592 208 0
SYMBOL lab2_comporator 240 112 R0
SYMATTR InstName X1
SYMBOL 74HCT\\74hct04 -448 48 R0
SYMATTR InstName U1
SYMBOL 74HCT\\74hct04 608 48 R0
SYMATTR InstName U2
SYMBOL voltage -592 112 R0
WINDOW 123 0 0 Left 2
WINDOW 39 0 0 Left 2
SYMATTR InstName V1
SYMATTR Value 5
SYMBOL 74HCT\\74hct04 -336 48 R0
SYMATTR InstName U3
SYMBOL 74HCT\\74hct04 -128 96 R0
SYMATTR InstName U4
TEXT -626 232 Left 2 !.tran 0 8n 0 1p
TEXT -600 -240 Left 2 !.lib 74hct.lib
TEXT -608 -184 Left 2 !.include 90nm_bulk.txt
